5,7-Dihydrox-4'-methoxyisoflavone
 OpenBabel02232300563D

 21 23  0  0  0  0  0  0  0  0999 V2000
   27.6217   56.8140   -2.1578 O   0  0  0  0  0  0  0  0  0  0  0  0
   28.2088   55.4241   -2.1406 C   0  0  0  0  0  0  0  0  0  0  0  0
   28.5878   54.7255   -3.4320 C   0  0  0  0  0  0  0  0  0  0  0  0
   28.4267   54.7112   -0.8436 C   0  0  0  0  0  0  0  0  0  0  0  0
   29.1751   53.3355   -3.4149 C   0  0  0  0  0  0  0  0  0  0  0  0
   28.3806   55.4170   -4.7521 C   0  0  0  0  0  0  0  0  0  0  0  0
   28.0582   55.3882    0.4247 C   0  0  0  0  0  0  0  0  0  0  0  0
   29.0139   53.3212   -0.8265 C   0  0  0  0  0  0  0  0  0  0  0  0
   29.3930   52.6227   -2.1178 O   0  0  0  0  0  0  0  0  0  0  0  0
   29.5542   52.6370   -4.7063 C   0  0  0  0  0  0  0  0  0  0  0  0
   27.8040   56.7855   -4.7922 O   0  0  0  0  0  0  0  0  0  0  0  0
   28.7597   54.7184   -6.0436 C   0  0  0  0  0  0  0  0  0  0  0  0
   28.9105   55.1803    1.6365 C   0  0  0  0  0  0  0  0  0  0  0  0
   26.8541   56.2572    0.4690 C   0  0  0  0  0  0  0  0  0  0  0  0
   29.3469   53.3285   -6.0264 C   0  0  0  0  0  0  0  0  0  0  0  0
   28.5418   55.8574    2.9049 C   0  0  0  0  0  0  0  0  0  0  0  0
   26.4855   56.9342    1.7373 C   0  0  0  0  0  0  0  0  0  0  0  0
   29.7260   52.6300   -7.3178 O   0  0  0  0  0  0  0  0  0  0  0  0
   27.3378   56.7262    2.9492 C   0  0  0  0  0  0  0  0  0  0  0  0
   26.9693   57.4033    4.2175 O   0  0  0  0  0  0  0  0  0  0  0  0
   26.2532   56.6269    5.2771 C   0  0  0  0  0  0  0  0  0  0  0  0
  1  2  2  0  0  0  0
  2  3  1  0  0  0  0
  2  4  1  0  0  0  0
  3  5  2  0  0  0  0
  3  6  1  0  0  0  0
  4  7  1  0  0  0  0
  4  8  2  0  0  0  0
  5  9  1  0  0  0  0
  5 10  1  0  0  0  0
  6 11  1  0  0  0  0
  6 12  2  0  0  0  0
  7 13  2  0  0  0  0
  7 14  1  0  0  0  0
  8  9  1  0  0  0  0
 10 15  2  0  0  0  0
 12 15  1  0  0  0  0
 13 16  1  0  0  0  0
 14 17  2  0  0  0  0
 15 18  1  0  0  0  0
 16 19  2  0  0  0  0
 17 19  1  0  0  0  0
 19 20  1  0  0  0  0
 20 21  1  0  0  0  0
M  END
>  <Molecule Name>
5,7-Dihydrox-4'-methoxyisoflavone

>  <minimizedAffinity>
-8.52909

>  <Total Molweight>
284.266

>  <cLogP>
1.9029

>  <H-Acceptors>
5

>  <H-Donors>
2

>  <Mutagenic>
none

>  <Tumorigenic>
none

>  <Irritant>
none

$$$$
