Yohimbic acid
Actelion Java MolfileCreator 2.0

  0  0  0  0  0  0              0 V3000
M  V30 BEGIN CTAB
M  V30 COUNTS 25 29 0 0 0
M  V30 BEGIN ATOM
M  V30 1 O 27.1271 54.8171 -5.9328 0
M  V30 2 C 28.1401 55.0411 -5.8573 0
M  V30 3 O 28.2069 56.0582 -6.0657 0
M  V30 4 C 28.8216 54.2935 -5.6154 0 CFG=2
M  V30 5 C 29.1135 53.953 -6.5539 0 CFG=2
M  V30 6 C 29.1126 53.7767 -4.7609 0 CFG=1
M  V30 7 O 28.7138 54.3256 -7.439 0
M  V30 8 C 29.6963 53.0956 -6.6379 0
M  V30 9 C 29.6955 52.9193 -4.8448 0 CFG=2
M  V30 10 C 28.8208 54.1173 -3.8221 0
M  V30 11 C 29.9873 52.5787 -5.7833 0
M  V30 12 C 29.9865 52.4025 -3.9903 0
M  V30 13 C 29.1119 53.6005 -2.9677 0 CFG=2
M  V30 14 N 29.6947 52.7429 -3.0516 0
M  V30 15 C 28.8199 53.9411 -2.0291 0
M  V30 16 C 29.9858 52.2262 -2.197 0
M  V30 17 N 28.2497 54.7584 -1.7315 0
M  V30 18 C 29.111 53.4242 -1.1745 0
M  V30 19 C 29.6938 52.5668 -1.2586 0
M  V30 20 C 28.1881 54.747 -0.6931 0
M  V30 21 C 28.7206 53.9224 -0.3488 0
M  V30 22 C 27.7163 55.3807 -0.0166 0
M  V30 23 C 28.781 53.7313 0.672 0
M  V30 24 C 27.7767 55.19 1.0042 0
M  V30 25 C 28.309 54.3653 1.3486 0
M  V30 END ATOM
M  V30 BEGIN BOND
M  V30 1 2 1 2
M  V30 2 1 2 3
M  V30 3 1 2 4
M  V30 4 1 4 5
M  V30 5 1 4 6
M  V30 6 1 5 7
M  V30 7 1 5 8
M  V30 8 1 6 9
M  V30 9 1 6 10
M  V30 10 1 8 11
M  V30 11 1 9 12
M  V30 12 1 10 13
M  V30 13 1 12 14
M  V30 14 1 13 15
M  V30 15 1 14 16
M  V30 16 1 15 17
M  V30 17 2 15 18
M  V30 18 1 16 19
M  V30 19 1 17 20
M  V30 20 1 18 21
M  V30 21 1 20 22
M  V30 22 1 21 23
M  V30 23 2 22 24
M  V30 24 2 23 25
M  V30 25 1 9 11
M  V30 26 1 13 14
M  V30 27 1 18 19
M  V30 28 2 20 21
M  V30 29 1 24 25
M  V30 END BOND
M  V30 BEGIN COLLECTION
M  V30 MDLV30/STERAC1 ATOMS=(5 4 5 6 9 13)
M  V30 END COLLECTION
M  V30 END CTAB
M  END
>  <Molecule Name>
Yohimbic acid

>  <minimizedAffinity>
-13.05370

>  <Total Molweight>
340.422

>  <cLogP>
0.9968

>  <H-Acceptors>
5

>  <H-Donors>
3

>  <Mutagenic>
none

>  <Tumorigenic>
none

>  <Irritant>
none

$$$$
Taxifolin
Actelion Java MolfileCreator 2.0

  0  0  0  0  0  0              0 V3000
M  V30 BEGIN CTAB
M  V30 COUNTS 22 24 0 0 0
M  V30 BEGIN ATOM
M  V30 1 O 30.1052 52.0559 -1.313 0
M  V30 2 C 29.3038 53.3372 -1.3286 0
M  V30 3 C 28.9601 54.0098 -2.6395 0
M  V30 4 C 28.8463 53.9463 -0.0451 0 CFG=1
M  V30 5 C 28.1587 55.2912 -2.6549 0
M  V30 6 C 29.406 53.4215 -3.9465 0
M  V30 7 O 29.1784 53.2944 1.242 0
M  V30 8 C 28.0449 55.2277 -0.0607 0 CFG=1
M  V30 9 O 27.7012 55.9003 -1.3714 0
M  V30 10 C 27.8151 55.9638 -3.9658 0
M  V30 11 O 30.196 52.1608 -3.9545 0
M  V30 12 C 29.0625 54.0941 -5.2573 0
M  V30 13 C 27.5874 55.8367 1.2227 0
M  V30 14 C 28.261 55.3754 -5.2729 0
M  V30 15 C 28.3981 55.6696 2.4505 0
M  V30 16 C 26.2976 56.6233 1.2679 0
M  V30 17 O 27.9173 56.0481 -6.5837 0
M  V30 18 C 27.9407 56.2787 3.7339 0
M  V30 19 C 25.8401 57.2323 2.5514 0
M  V30 20 O 28.7512 56.1116 4.9617 0
M  V30 21 C 26.6508 57.0653 3.7792 0
M  V30 22 O 26.1934 57.6743 5.0627 0
M  V30 END ATOM
M  V30 BEGIN BOND
M  V30 1 2 1 2
M  V30 2 1 2 3
M  V30 3 1 2 4
M  V30 4 2 3 5
M  V30 5 1 3 6
M  V30 6 1 4 7
M  V30 7 1 4 8
M  V30 8 1 5 9
M  V30 9 1 5 10
M  V30 10 1 6 11
M  V30 11 2 6 12
M  V30 12 1 8 13
M  V30 13 2 10 14
M  V30 14 2 13 15
M  V30 15 1 13 16
M  V30 16 1 14 17
M  V30 17 1 15 18
M  V30 18 2 16 19
M  V30 19 1 18 20
M  V30 20 2 18 21
M  V30 21 1 21 22
M  V30 22 1 8 9
M  V30 23 1 12 14
M  V30 24 1 19 21
M  V30 END BOND
M  V30 BEGIN COLLECTION
M  V30 MDLV30/STERAC1 ATOMS=(2 4 8)
M  V30 END COLLECTION
M  V30 END CTAB
M  END
>  <Molecule Name>
Taxifolin

>  <minimizedAffinity>
-8.96118

>  <Total Molweight>
304.253

>  <cLogP>
0.9579

>  <H-Acceptors>
7

>  <H-Donors>
5

>  <Mutagenic>
none

>  <Tumorigenic>
none

>  <Irritant>
none

$$$$
5,7-Dihydrox-4'-methoxyisoflavone
Actelion Java MolfileCreator 2.0

  0  0  0  0  0  0              0 V3000
M  V30 BEGIN CTAB
M  V30 COUNTS 21 23 0 0 0
M  V30 BEGIN ATOM
M  V30 1 O 27.6217 56.814 -2.1578 0
M  V30 2 C 28.2088 55.4241 -2.1406 0
M  V30 3 C 28.5878 54.7255 -3.432 0
M  V30 4 C 28.4267 54.7112 -0.8436 0
M  V30 5 C 29.1751 53.3355 -3.4149 0
M  V30 6 C 28.3806 55.417 -4.7521 0
M  V30 7 C 28.0582 55.3882 0.4247 0
M  V30 8 C 29.0139 53.3212 -0.8265 0
M  V30 9 O 29.393 52.6227 -2.1178 0
M  V30 10 C 29.5542 52.637 -4.7063 0
M  V30 11 O 27.804 56.7855 -4.7922 0
M  V30 12 C 28.7597 54.7184 -6.0436 0
M  V30 13 C 28.9105 55.1803 1.6365 0
M  V30 14 C 26.8541 56.2572 0.469 0
M  V30 15 C 29.3469 53.3285 -6.0264 0
M  V30 16 C 28.5418 55.8574 2.9049 0
M  V30 17 C 26.4855 56.9342 1.7373 0
M  V30 18 O 29.726 52.63 -7.3178 0
M  V30 19 C 27.3378 56.7262 2.9492 0
M  V30 20 O 26.9693 57.4033 4.2175 0
M  V30 21 C 26.2532 56.6269 5.2771 0
M  V30 END ATOM
M  V30 BEGIN BOND
M  V30 1 2 1 2
M  V30 2 1 2 3
M  V30 3 1 2 4
M  V30 4 2 3 5
M  V30 5 1 3 6
M  V30 6 1 4 7
M  V30 7 2 4 8
M  V30 8 1 5 9
M  V30 9 1 5 10
M  V30 10 1 6 11
M  V30 11 2 6 12
M  V30 12 2 7 13
M  V30 13 1 7 14
M  V30 14 2 10 15
M  V30 15 1 13 16
M  V30 16 2 14 17
M  V30 17 1 15 18
M  V30 18 2 16 19
M  V30 19 1 19 20
M  V30 20 1 20 21
M  V30 21 1 8 9
M  V30 22 1 12 15
M  V30 23 1 17 19
M  V30 END BOND
M  V30 END CTAB
M  END
>  <Molecule Name>
5,7-Dihydrox-4'-methoxyisoflavone

>  <minimizedAffinity>
-8.52909

>  <Total Molweight>
284.266

>  <cLogP>
1.9029

>  <H-Acceptors>
5

>  <H-Donors>
2

>  <Mutagenic>
none

>  <Tumorigenic>
none

>  <Irritant>
none

$$$$
Medicarpin
Actelion Java MolfileCreator 2.0

  0  0  0  0  0  0              0 V3000
M  V30 BEGIN CTAB
M  V30 COUNTS 20 23 0 0 0
M  V30 BEGIN ATOM
M  V30 1 O 30.2008 52.2499 -2.7212 0
M  V30 2 C 29.6306 52.9806 -3.9049 0
M  V30 3 C 29.8771 52.7496 -1.3446 0
M  V30 4 C 28.7519 54.1902 -3.7083 0
M  V30 5 C 29.935 52.5076 -5.2756 0
M  V30 6 C 28.9985 53.9591 -1.1479 0 CFG=1
M  V30 7 C 28.1816 54.921 -4.892 0
M  V30 8 C 28.4282 54.6898 -2.3314 0 CFG=1
M  V30 9 C 29.3646 53.2384 -6.4593 0
M  V30 10 C 28.5115 54.6761 0.084 0
M  V30 11 C 28.4861 54.4479 -6.2625 0
M  V30 12 O 27.5929 55.8526 -1.8335 0
M  V30 13 O 29.6691 52.7653 -7.83 0
M  V30 14 C 27.6479 55.839 -0.345 0
M  V30 15 C 28.7317 54.435 1.5381 0
M  V30 16 C 27.0201 56.74 0.6839 0
M  V30 17 C 28.1041 55.336 2.5671 0
M  V30 18 C 27.2405 56.4989 2.1382 0
M  V30 19 O 26.6127 57.3998 3.167 0
M  V30 20 C 26.2781 56.8828 4.5242 0
M  V30 END ATOM
M  V30 BEGIN BOND
M  V30 1 1 1 2
M  V30 2 1 1 3
M  V30 3 2 2 4
M  V30 4 1 2 5
M  V30 5 1 3 6
M  V30 6 1 4 7
M  V30 7 1 4 8
M  V30 8 2 5 9
M  V30 9 1 6 10
M  V30 10 2 7 11
M  V30 11 1 8 12
M  V30 12 1 9 13
M  V30 13 2 10 14
M  V30 14 1 10 15
M  V30 15 1 14 16
M  V30 16 2 15 17
M  V30 17 2 16 18
M  V30 18 1 18 19
M  V30 19 1 19 20
M  V30 20 1 6 8
M  V30 21 1 9 11
M  V30 22 1 12 14
M  V30 23 1 17 18
M  V30 END BOND
M  V30 BEGIN COLLECTION
M  V30 MDLV30/STERAC1 ATOMS=(2 6 8)
M  V30 END COLLECTION
M  V30 END CTAB
M  END
>  <Molecule Name>
Medicarpin

>  <minimizedAffinity>
-8.48579

>  <Total Molweight>
270.283

>  <cLogP>
3.1657

>  <H-Acceptors>
4

>  <H-Donors>
1

>  <Mutagenic>
none

>  <Tumorigenic>
none

>  <Irritant>
none

$$$$
Calycosin (3′-hydroxyl-formononetin)
Actelion Java MolfileCreator 2.0

  0  0  0  0  0  0              0 V3000
M  V30 BEGIN CTAB
M  V30 COUNTS 21 23 0 0 0
M  V30 BEGIN ATOM
M  V30 1 O 27.908 56.6195 -2.0639 0
M  V30 2 C 28.489 55.2352 -1.9169 0
M  V30 3 C 28.5727 54.5893 -0.5706 0
M  V30 4 C 28.9973 54.4746 -3.1257 0
M  V30 5 C 28.0772 55.3274 0.6173 0
M  V30 6 C 29.1537 53.2049 -0.4237 0
M  V30 7 C 29.5782 53.0901 -2.9788 0
M  V30 8 C 28.9264 55.0977 -4.4928 0
M  V30 9 C 28.8072 55.1928 1.9158 0
M  V30 10 C 26.8698 56.1837 0.4973 0
M  V30 11 O 29.6618 52.4442 -1.6323 0
M  V30 12 C 30.0865 52.3294 -4.1875 0
M  V30 13 C 29.4347 54.337 -5.7015 0
M  V30 14 C 28.3118 55.9309 3.1038 0
M  V30 15 C 26.3744 56.9217 1.6852 0
M  V30 16 C 30.0157 52.9526 -5.5546 0
M  V30 17 O 29.0417 55.7963 4.4023 0
M  V30 18 C 27.1045 56.7872 2.9837 0
M  V30 19 O 30.524 52.1919 -6.7633 0
M  V30 20 O 26.609 57.5251 4.1717 0
M  V30 21 C 26.0747 56.7556 5.3376 0
M  V30 END ATOM
M  V30 BEGIN BOND
M  V30 1 2 1 2
M  V30 2 1 2 3
M  V30 3 1 2 4
M  V30 4 1 3 5
M  V30 5 2 3 6
M  V30 6 2 4 7
M  V30 7 1 4 8
M  V30 8 2 5 9
M  V30 9 1 5 10
M  V30 10 1 6 11
M  V30 11 1 7 12
M  V30 12 2 8 13
M  V30 13 1 9 14
M  V30 14 2 10 15
M  V30 15 2 12 16
M  V30 16 1 14 17
M  V30 17 2 14 18
M  V30 18 1 16 19
M  V30 19 1 18 20
M  V30 20 1 20 21
M  V30 21 1 7 11
M  V30 22 1 13 16
M  V30 23 1 15 18
M  V30 END BOND
M  V30 END CTAB
M  END
>  <Molecule Name>
Calycosin (3′-hydroxyl-formononetin)

>  <minimizedAffinity>
-8.32307

>  <Total Molweight>
284.266

>  <cLogP>
1.9029

>  <H-Acceptors>
5

>  <H-Donors>
2

>  <Mutagenic>
none

>  <Tumorigenic>
none

>  <Irritant>
none

$$$$
