Calycosin (3′-hydroxyl-formononetin)
 OpenBabel02232300563D

 21 23  0  0  0  0  0  0  0  0999 V2000
   27.9080   56.6195   -2.0639 O   0  0  0  0  0  0  0  0  0  0  0  0
   28.4890   55.2352   -1.9169 C   0  0  0  0  0  0  0  0  0  0  0  0
   28.5727   54.5893   -0.5706 C   0  0  0  0  0  0  0  0  0  0  0  0
   28.9973   54.4746   -3.1257 C   0  0  0  0  0  0  0  0  0  0  0  0
   28.0772   55.3274    0.6173 C   0  0  0  0  0  0  0  0  0  0  0  0
   29.1537   53.2049   -0.4237 C   0  0  0  0  0  0  0  0  0  0  0  0
   29.5782   53.0901   -2.9788 C   0  0  0  0  0  0  0  0  0  0  0  0
   28.9264   55.0977   -4.4928 C   0  0  0  0  0  0  0  0  0  0  0  0
   28.8072   55.1928    1.9158 C   0  0  0  0  0  0  0  0  0  0  0  0
   26.8698   56.1837    0.4973 C   0  0  0  0  0  0  0  0  0  0  0  0
   29.6618   52.4442   -1.6323 O   0  0  0  0  0  0  0  0  0  0  0  0
   30.0865   52.3294   -4.1875 C   0  0  0  0  0  0  0  0  0  0  0  0
   29.4347   54.3370   -5.7015 C   0  0  0  0  0  0  0  0  0  0  0  0
   28.3118   55.9309    3.1038 C   0  0  0  0  0  0  0  0  0  0  0  0
   26.3744   56.9217    1.6852 C   0  0  0  0  0  0  0  0  0  0  0  0
   30.0157   52.9526   -5.5546 C   0  0  0  0  0  0  0  0  0  0  0  0
   29.0417   55.7963    4.4023 O   0  0  0  0  0  0  0  0  0  0  0  0
   27.1045   56.7872    2.9837 C   0  0  0  0  0  0  0  0  0  0  0  0
   30.5240   52.1919   -6.7633 O   0  0  0  0  0  0  0  0  0  0  0  0
   26.6090   57.5251    4.1717 O   0  0  0  0  0  0  0  0  0  0  0  0
   26.0747   56.7556    5.3376 C   0  0  0  0  0  0  0  0  0  0  0  0
  1  2  2  0  0  0  0
  2  3  1  0  0  0  0
  2  4  1  0  0  0  0
  3  5  1  0  0  0  0
  3  6  2  0  0  0  0
  4  7  2  0  0  0  0
  4  8  1  0  0  0  0
  5  9  2  0  0  0  0
  5 10  1  0  0  0  0
  6 11  1  0  0  0  0
  7 12  1  0  0  0  0
  7 11  1  0  0  0  0
  8 13  2  0  0  0  0
  9 14  1  0  0  0  0
 10 15  2  0  0  0  0
 12 16  2  0  0  0  0
 13 16  1  0  0  0  0
 14 17  1  0  0  0  0
 14 18  2  0  0  0  0
 15 18  1  0  0  0  0
 16 19  1  0  0  0  0
 18 20  1  0  0  0  0
 20 21  1  0  0  0  0
M  END
>  <Molecule Name>
Calycosin (3′-hydroxyl-formononetin)

>  <minimizedAffinity>
-8.32307

>  <Total Molweight>
284.266

>  <cLogP>
1.9029

>  <H-Acceptors>
5

>  <H-Donors>
2

>  <Mutagenic>
none

>  <Tumorigenic>
none

>  <Irritant>
none

$$$$
