Medicarpin
 OpenBabel02232300563D

 20 23  0  0  0  0  0  0  0  0999 V2000
   30.2008   52.2499   -2.7212 O   0  0  0  0  0  0  0  0  0  0  0  0
   29.6306   52.9806   -3.9049 C   0  0  0  0  0  0  0  0  0  0  0  0
   29.8771   52.7496   -1.3446 C   0  0  0  0  0  0  0  0  0  0  0  0
   28.7519   54.1902   -3.7083 C   0  0  0  0  0  0  0  0  0  0  0  0
   29.9350   52.5076   -5.2756 C   0  0  0  0  0  0  0  0  0  0  0  0
   28.9985   53.9591   -1.1479 C   0  0  2  0  0  0  0  0  0  0  0  0
   28.1816   54.9210   -4.8920 C   0  0  0  0  0  0  0  0  0  0  0  0
   28.4282   54.6898   -2.3314 C   0  0  1  0  0  0  0  0  0  0  0  0
   29.3646   53.2384   -6.4593 C   0  0  0  0  0  0  0  0  0  0  0  0
   28.5115   54.6761    0.0840 C   0  0  0  0  0  0  0  0  0  0  0  0
   28.4861   54.4479   -6.2625 C   0  0  0  0  0  0  0  0  0  0  0  0
   27.5929   55.8526   -1.8335 O   0  0  0  0  0  0  0  0  0  0  0  0
   29.6691   52.7653   -7.8300 O   0  0  0  0  0  0  0  0  0  0  0  0
   27.6479   55.8390   -0.3450 C   0  0  0  0  0  0  0  0  0  0  0  0
   28.7317   54.4350    1.5381 C   0  0  0  0  0  0  0  0  0  0  0  0
   27.0201   56.7400    0.6839 C   0  0  0  0  0  0  0  0  0  0  0  0
   28.1041   55.3360    2.5671 C   0  0  0  0  0  0  0  0  0  0  0  0
   27.2405   56.4989    2.1382 C   0  0  0  0  0  0  0  0  0  0  0  0
   26.6127   57.3998    3.1670 O   0  0  0  0  0  0  0  0  0  0  0  0
   26.2781   56.8828    4.5242 C   0  0  0  0  0  0  0  0  0  0  0  0
  1  2  1  0  0  0  0
  1  3  1  0  0  0  0
  2  4  2  0  0  0  0
  2  5  1  0  0  0  0
  4  7  1  0  0  0  0
  5  9  2  0  0  0  0
  6  3  1  6  0  0  0
  6 10  1  0  0  0  0
  6  8  1  0  0  0  0
  7 11  2  0  0  0  0
  8  4  1  6  0  0  0
  8 12  1  0  0  0  0
  9 13  1  0  0  0  0
  9 11  1  0  0  0  0
 10 14  2  0  0  0  0
 10 15  1  0  0  0  0
 12 14  1  0  0  0  0
 14 16  1  0  0  0  0
 15 17  2  0  0  0  0
 16 18  2  0  0  0  0
 17 18  1  0  0  0  0
 18 19  1  0  0  0  0
 19 20  1  0  0  0  0
M  END
>  <Molecule Name>
Medicarpin

>  <minimizedAffinity>
-8.48579

>  <Total Molweight>
270.283

>  <cLogP>
3.1657

>  <H-Acceptors>
4

>  <H-Donors>
1

>  <Mutagenic>
none

>  <Tumorigenic>
none

>  <Irritant>
none

$$$$
