Taxifolin
 OpenBabel02232300563D

 22 24  0  0  0  0  0  0  0  0999 V2000
   30.1052   52.0559   -1.3130 O   0  0  0  0  0  0  0  0  0  0  0  0
   29.3038   53.3372   -1.3286 C   0  0  0  0  0  0  0  0  0  0  0  0
   28.9601   54.0098   -2.6395 C   0  0  0  0  0  0  0  0  0  0  0  0
   28.8463   53.9463   -0.0451 C   0  0  1  0  0  0  0  0  0  0  0  0
   28.1587   55.2912   -2.6549 C   0  0  0  0  0  0  0  0  0  0  0  0
   29.4060   53.4215   -3.9465 C   0  0  0  0  0  0  0  0  0  0  0  0
   29.1784   53.2944    1.2420 O   0  0  0  0  0  0  0  0  0  0  0  0
   28.0449   55.2277   -0.0607 C   0  0  1  0  0  0  0  0  0  0  0  0
   27.7012   55.9003   -1.3714 O   0  0  0  0  0  0  0  0  0  0  0  0
   27.8151   55.9638   -3.9658 C   0  0  0  0  0  0  0  0  0  0  0  0
   30.1960   52.1608   -3.9545 O   0  0  0  0  0  0  0  0  0  0  0  0
   29.0625   54.0941   -5.2573 C   0  0  0  0  0  0  0  0  0  0  0  0
   27.5874   55.8367    1.2227 C   0  0  0  0  0  0  0  0  0  0  0  0
   28.2610   55.3754   -5.2729 C   0  0  0  0  0  0  0  0  0  0  0  0
   28.3981   55.6696    2.4505 C   0  0  0  0  0  0  0  0  0  0  0  0
   26.2976   56.6233    1.2679 C   0  0  0  0  0  0  0  0  0  0  0  0
   27.9173   56.0481   -6.5837 O   0  0  0  0  0  0  0  0  0  0  0  0
   27.9407   56.2787    3.7339 C   0  0  0  0  0  0  0  0  0  0  0  0
   25.8401   57.2323    2.5514 C   0  0  0  0  0  0  0  0  0  0  0  0
   28.7512   56.1116    4.9617 O   0  0  0  0  0  0  0  0  0  0  0  0
   26.6508   57.0653    3.7792 C   0  0  0  0  0  0  0  0  0  0  0  0
   26.1934   57.6743    5.0627 O   0  0  0  0  0  0  0  0  0  0  0  0
  1  2  2  0  0  0  0
  2  3  1  0  0  0  0
  2  4  1  0  0  0  0
  3  5  2  0  0  0  0
  3  6  1  0  0  0  0
  4  7  1  1  0  0  0
  4  8  1  0  0  0  0
  5  9  1  0  0  0  0
  5 10  1  0  0  0  0
  6 11  1  0  0  0  0
  6 12  2  0  0  0  0
  8 13  1  6  0  0  0
  8  9  1  0  0  0  0
 10 14  2  0  0  0  0
 12 14  1  0  0  0  0
 13 15  2  0  0  0  0
 13 16  1  0  0  0  0
 14 17  1  0  0  0  0
 15 18  1  0  0  0  0
 16 19  2  0  0  0  0
 18 20  1  0  0  0  0
 18 21  2  0  0  0  0
 19 21  1  0  0  0  0
 21 22  1  0  0  0  0
M  END
>  <Molecule Name>
Taxifolin

>  <minimizedAffinity>
-8.96118

>  <Total Molweight>
304.253

>  <cLogP>
0.9579

>  <H-Acceptors>
7

>  <H-Donors>
5

>  <Mutagenic>
none

>  <Tumorigenic>
none

>  <Irritant>
none

$$$$
