Yohimbic acid
 OpenBabel02232300563D

 25 29  0  0  0  0  0  0  0  0999 V2000
   27.1271   54.8171   -5.9328 O   0  0  0  0  0  0  0  0  0  0  0  0
   28.1401   55.0411   -5.8573 C   0  0  0  0  0  0  0  0  0  0  0  0
   28.2069   56.0582   -6.0657 O   0  0  0  0  0  0  0  0  0  0  0  0
   28.8216   54.2935   -5.6154 C   0  0  2  0  0  0  0  0  0  0  0  0
   29.1135   53.9530   -6.5539 C   0  0  2  0  0  0  0  0  0  0  0  0
   29.1126   53.7767   -4.7609 C   0  0  1  0  0  0  0  0  0  0  0  0
   28.7138   54.3256   -7.4390 O   0  0  0  0  0  0  0  0  0  0  0  0
   29.6963   53.0956   -6.6379 C   0  0  0  0  0  0  0  0  0  0  0  0
   29.6955   52.9193   -4.8448 C   0  0  2  0  0  0  0  0  0  0  0  0
   28.8208   54.1173   -3.8221 C   0  0  0  0  0  0  0  0  0  0  0  0
   29.9873   52.5787   -5.7833 C   0  0  0  0  0  0  0  0  0  0  0  0
   29.9865   52.4025   -3.9903 C   0  0  0  0  0  0  0  0  0  0  0  0
   29.1119   53.6005   -2.9677 C   0  0  2  0  0  0  0  0  0  0  0  0
   29.6947   52.7429   -3.0516 N   0  0  2  0  0  0  0  0  0  0  0  0
   28.8199   53.9411   -2.0291 C   0  0  0  0  0  0  0  0  0  0  0  0
   29.9858   52.2262   -2.1970 C   0  0  0  0  0  0  0  0  0  0  0  0
   28.2497   54.7584   -1.7315 N   0  0  0  0  0  0  0  0  0  0  0  0
   29.1110   53.4242   -1.1745 C   0  0  0  0  0  0  0  0  0  0  0  0
   29.6938   52.5668   -1.2586 C   0  0  0  0  0  0  0  0  0  0  0  0
   28.1881   54.7470   -0.6931 C   0  0  0  0  0  0  0  0  0  0  0  0
   28.7206   53.9224   -0.3488 C   0  0  0  0  0  0  0  0  0  0  0  0
   27.7163   55.3807   -0.0166 C   0  0  0  0  0  0  0  0  0  0  0  0
   28.7810   53.7313    0.6720 C   0  0  0  0  0  0  0  0  0  0  0  0
   27.7767   55.1900    1.0042 C   0  0  0  0  0  0  0  0  0  0  0  0
   28.3090   54.3653    1.3486 C   0  0  0  0  0  0  0  0  0  0  0  0
  1  2  2  0  0  0  0
  2  3  1  0  0  0  0
  4  2  1  6  0  0  0
  4  5  1  0  0  0  0
  4  6  1  0  0  0  0
  5  7  1  6  0  0  0
  5  8  1  0  0  0  0
  6  9  1  0  0  0  0
  6 10  1  1  0  0  0
  8 11  1  0  0  0  0
  9 12  1  6  0  0  0
  9 11  1  0  0  0  0
 13 10  1  6  0  0  0
 13 15  1  0  0  0  0
 13 14  1  0  0  0  0
 14 12  1  1  0  0  0
 14 16  1  0  0  0  0
 15 17  1  0  0  0  0
 15 18  2  0  0  0  0
 16 19  1  0  0  0  0
 17 20  1  0  0  0  0
 18 21  1  0  0  0  0
 18 19  1  0  0  0  0
 20 22  1  0  0  0  0
 20 21  2  0  0  0  0
 21 23  1  0  0  0  0
 22 24  2  0  0  0  0
 23 25  2  0  0  0  0
 24 25  1  0  0  0  0
M  END
>  <Molecule Name>
Yohimbic acid

>  <minimizedAffinity>
-13.05370

>  <Total Molweight>
340.422

>  <cLogP>
0.9968

>  <H-Acceptors>
5

>  <H-Donors>
3

>  <Mutagenic>
none

>  <Tumorigenic>
none

>  <Irritant>
none

$$$$
