


 19 21  0  0  0  0  0  0  0  0999 V2000
   29.4279   53.4784   -4.8123 C   0  0  0  0  0  0  0  0  0  0  0  0
   29.1345   54.7042   -5.3652 C   0  0  0  0  0  0  0  0  0  0  0  0
   28.7744   55.7112   -4.4954 C   0  0  0  0  0  0  0  0  0  0  0  0
   28.7217   55.4417   -3.1449 C   0  0  0  0  0  0  0  0  0  0  0  0
   28.3611   56.5023   -2.3381 O   0  0  0  0  0  0  0  0  0  0  0  0
   27.2587   56.1326   -1.5222 C   0  0  0  0  0  0  0  0  0  0  0  0
   27.8144   55.7361   -0.1789 C   0  0  0  0  0  0  0  0  0  0  0  0
   28.5230   54.4494   -0.1729 C   0  0  0  0  0  0  0  0  0  0  0  0
   29.0405   53.7968   -1.2778 C   0  0  0  0  0  0  0  0  0  0  0  0
   29.7890   52.3239   -0.7833 S   0  0  0  0  0  0  0  0  0  0  0  0
   29.4336   52.5498    0.8787 C   0  0  0  0  0  0  0  0  0  0  0  0
   28.7525   53.7388    1.0409 C   0  0  0  0  0  0  0  0  0  0  0  0
   29.0372   54.1747   -2.6789 C   0  0  0  0  0  0  0  0  0  0  0  0
   29.3892   53.1866   -3.5044 N   0  0  0  0  0  0  0  0  0  0  0  0
   30.3218   51.2914   -4.9964 N   0  0  0  0  0  0  0  0  0  0  0  0
   29.8148   52.3673   -5.6866 C   0  0  0  0  0  0  0  0  0  0  0  0
   29.6500   52.4210   -6.8977 O   0  0  0  0  0  0  0  0  0  0  0  0
   30.6138   50.4877   -5.4838 H   0  0  0  0  0  0  0  0  0  0  0  0
   30.3926   51.3249   -4.0155 H   0  0  0  0  0  0  0  0  0  0  0  0
 15 16  1  0  0  0
 15 18  1  0  0  0
 15 19  1  0  0  0
 16 17  2  0  0  0
 16  1  1  0  0  0
  1 14  2  0  0  0
  1  2  1  0  0  0
  2  3  2  0  0  0
  3  4  1  0  0  0
  4  5  1  0  0  0
  4 13  1  0  0  0
  5  6  1  0  0  0
  6  7  1  0  0  0
  7  8  1  0  0  0
  8  9  2  0  0  0
  8 12  1  0  0  0
  9 10  1  0  0  0
  9 13  1  0  0  0
 10 11  1  0  0  0
 11 12  2  0  0  0
 13 14  2  0  0  0
M  END
> <minimizedAffinity>
-8.04344

$$$$
